@<TRIPOS>MOLECULE
UNL
   14    13     1     0     0
SMALL
bcc


@<TRIPOS>ATOM
      1 C1           1.8910     0.0510     0.2450 c3         1 UNL      -0.092100
      2 C2           0.5480     0.1160    -0.4350 c3         1 UNL      -0.080400
      3 C3          -0.5020    -0.0820     0.6670 c3         1 UNL      -0.080400
      4 C4          -1.9010    -0.0370     0.1070 c3         1 UNL      -0.092100
      5 H1           2.1110    -1.0280     0.4450 hc         1 UNL       0.032367
      6 H2           2.7110     0.4490    -0.3760 hc         1 UNL       0.032367
      7 H3           1.8600     0.5390     1.2410 hc         1 UNL       0.032367
      8 H4           0.4330    -0.6900    -1.1880 hc         1 UNL       0.038700
      9 H5           0.3670     1.1160    -0.9010 hc         1 UNL       0.038700
     10 H6          -0.4330     0.7380     1.4060 hc         1 UNL       0.038700
     11 H7          -0.3450    -1.0740     1.1080 hc         1 UNL       0.038700
     12 H8          -2.2790     0.9960    -0.0350 hc         1 UNL       0.032367
     13 H9          -1.8980    -0.5740    -0.8610 hc         1 UNL       0.032367
     14 H10         -2.5640    -0.5210     0.8620 hc         1 UNL       0.032367
@<TRIPOS>BOND
     1     1     2 1   
     2     1     5 1   
     3     1     6 1   
     4     1     7 1   
     5     2     3 1   
     6     2     8 1   
     7     2     9 1   
     8     3     4 1   
     9     3    10 1   
    10     3    11 1   
    11     4    12 1   
    12     4    13 1   
    13     4    14 1   
@<TRIPOS>SUBSTRUCTURE
     1 UNL         1 TEMP              0 ****  ****    0 ROOT
