@<TRIPOS>MOLECULE
UNL
   11    10     1     0     0
SMALL
bcc


@<TRIPOS>ATOM
      1 C1           1.2170    -0.2430     0.2110 c3         1 UNL      -0.093100
      2 C2           0.0390     0.6640    -0.0650 c3         1 UNL      -0.081400
      3 C3          -1.2110    -0.1900    -0.2050 c3         1 UNL      -0.093100
      4 H1           0.8480    -1.2770     0.4540 hc         1 UNL       0.032367
      5 H2           1.8960    -0.3450    -0.6430 hc         1 UNL       0.032367
      6 H3           1.7010     0.1010     1.1450 hc         1 UNL       0.032367
      7 H4          -0.1470     1.3880     0.7630 hc         1 UNL       0.036700
      8 H5           0.2450     1.2470    -0.9790 hc         1 UNL       0.036700
      9 H6          -1.5760    -0.2470    -1.2380 hc         1 UNL       0.032367
     10 H7          -0.9830    -1.2430     0.0900 hc         1 UNL       0.032367
     11 H8          -2.0290     0.1450     0.4660 hc         1 UNL       0.032367
@<TRIPOS>BOND
     1     1     2 1   
     2     1     4 1   
     3     1     5 1   
     4     1     6 1   
     5     2     3 1   
     6     2     7 1   
     7     2     8 1   
     8     3     9 1   
     9     3    10 1   
    10     3    11 1   
@<TRIPOS>SUBSTRUCTURE
     1 UNL         1 TEMP              0 ****  ****    0 ROOT
